<routes>

	<vType id="car0" accel="100.0" decel="100.0" sigma="0.0" length="6.000000" minGap="3.000000" maxSpeed="11.180000" tau="0.050000" carFollowModel="CACC" color="255,255,255"/>

	<route id="route1_2" edges=" 1 -2"/>
	<route id="route1_3" edges=" 1 -3"/>
	<route id="route1_4" edges=" 1 -4"/>
	<route id="route2_1" edges=" 2 -1"/>
	<route id="route2_3" edges=" 2 -3"/>
	<route id="route2_4" edges=" 2 -4"/>
	<route id="route3_1" edges=" 3 -1"/>
	<route id="route3_2" edges=" 3 -2"/>
	<route id="route3_4" edges=" 3 -4"/>
	<route id="route4_1" edges=" 4 -1"/>
	<route id="route4_2" edges=" 4 -2"/>
	<route id="route4_3" edges=" 4 -3"/>

	<vehicle id="R_0" type="car0" route="route4_3" depart="0" departLane = "1" departSpeed="11.180000"/>
	<vehicle id="L_1" type="car0" route="route3_4" depart="1" departLane = "2" departSpeed="11.180000"/>
	<vehicle id="S_2" type="car0" route="route1_3" depart="2" departLane = "2" departSpeed="11.180000"/>
	<vehicle id="R_3" type="car0" route="route3_2" depart="2" departLane = "0" departSpeed="11.180000"/>
	<vehicle id="S_4" type="car0" route="route2_4" depart="3" departLane = "2" departSpeed="11.180000"/>
	<vehicle id="L_5" type="car0" route="route3_4" depart="3" departLane = "0" departSpeed="11.180000"/>
	<vehicle id="L_6" type="car0" route="route2_3" depart="4" departLane = "0" departSpeed="11.180000"/>
	<vehicle id="R_7" type="car0" route="route1_4" depart="5" departLane = "0" departSpeed="11.180000"/>
	<vehicle id="L_8" type="car0" route="route2_3" depart="5" departLane = "0" departSpeed="11.180000"/>
	<vehicle id="L_9" type="car0" route="route2_3" depart="7" departLane = "2" departSpeed="11.180000"/>
	<vehicle id="R_10" type="car0" route="route3_2" depart="8" departLane = "0" departSpeed="11.180000"/>
	<vehicle id="R_11" type="car0" route="route1_4" depart="10" departLane = "2" departSpeed="11.180000"/>
	<vehicle id="L_12" type="car0" route="route4_1" depart="10" departLane = "0" departSpeed="11.180000"/>
	<vehicle id="S_13" type="car0" route="route3_1" depart="11" departLane = "1" departSpeed="11.180000"/>
	<vehicle id="R_14" type="car0" route="route2_1" depart="12" departLane = "1" departSpeed="11.180000"/>
	<vehicle id="S_15" type="car0" route="route3_1" depart="12" departLane = "2" departSpeed="11.180000"/>
	<vehicle id="R_16" type="car0" route="route4_3" depart="12" departLane = "0" departSpeed="11.180000"/>
	<vehicle id="L_17" type="car0" route="route1_2" depart="13" departLane = "1" departSpeed="11.180000"/>
	<vehicle id="R_18" type="car0" route="route2_1" depart="13" departLane = "2" departSpeed="11.180000"/>
	<vehicle id="R_19" type="car0" route="route4_3" depart="13" departLane = "0" departSpeed="11.180000"/>
	<vehicle id="S_20" type="car0" route="route4_2" depart="14" departLane = "2" departSpeed="11.180000"/>
	<vehicle id="L_21" type="car0" route="route1_2" depart="15" departLane = "1" departSpeed="11.180000"/>
	<vehicle id="S_22" type="car0" route="route2_4" depart="15" departLane = "1" departSpeed="11.180000"/>
	<vehicle id="R_23" type="car0" route="route4_3" depart="16" departLane = "2" departSpeed="11.180000"/>
	<vehicle id="S_24" type="car0" route="route2_4" depart="17" departLane = "1" departSpeed="11.180000"/>
	<vehicle id="S_25" type="car0" route="route4_2" depart="17" departLane = "1" departSpeed="11.180000"/>
	<vehicle id="S_26" type="car0" route="route3_1" depart="18" departLane = "2" departSpeed="11.180000"/>
	<vehicle id="S_27" type="car0" route="route3_1" depart="19" departLane = "1" departSpeed="11.180000"/>
	<vehicle id="S_28" type="car0" route="route4_2" depart="19" departLane = "1" departSpeed="11.180000"/>
	<vehicle id="S_29" type="car0" route="route4_2" depart="20" departLane = "1" departSpeed="11.180000"/>
	<vehicle id="R_30" type="car0" route="route1_4" depart="21" departLane = "0" departSpeed="11.180000"/>
	<vehicle id="S_31" type="car0" route="route1_3" depart="22" departLane = "1" departSpeed="11.180000"/>
	<vehicle id="R_32" type="car0" route="route1_4" depart="23" departLane = "2" departSpeed="11.180000"/>
	<vehicle id="L_33" type="car0" route="route4_1" depart="24" departLane = "0" departSpeed="11.180000"/>
	<vehicle id="L_34" type="car0" route="route3_4" depart="27" departLane = "2" departSpeed="11.180000"/>
	<vehicle id="L_35" type="car0" route="route3_4" depart="28" departLane = "2" departSpeed="11.180000"/>
	<vehicle id="L_36" type="car0" route="route1_2" depart="30" departLane = "2" departSpeed="11.180000"/>
	<vehicle id="R_37" type="car0" route="route2_1" depart="30" departLane = "0" departSpeed="11.180000"/>
	<vehicle id="L_38" type="car0" route="route1_2" depart="33" departLane = "2" departSpeed="11.180000"/>
	<vehicle id="S_39" type="car0" route="route1_3" depart="34" departLane = "2" departSpeed="11.180000"/>
	<vehicle id="S_40" type="car0" route="route1_3" depart="35" departLane = "1" departSpeed="11.180000"/>
	<vehicle id="R_41" type="car0" route="route3_2" depart="36" departLane = "2" departSpeed="11.180000"/>
	<vehicle id="L_42" type="car0" route="route4_1" depart="36" departLane = "2" departSpeed="11.180000"/>
	<vehicle id="R_43" type="car0" route="route1_4" depart="37" departLane = "1" departSpeed="11.180000"/>
	<vehicle id="S_44" type="car0" route="route3_1" depart="37" departLane = "1" departSpeed="11.180000"/>
	<vehicle id="R_45" type="car0" route="route2_1" depart="38" departLane = "1" departSpeed="11.180000"/>
	<vehicle id="L_46" type="car0" route="route1_2" depart="39" departLane = "2" departSpeed="11.180000"/>
	<vehicle id="R_47" type="car0" route="route1_4" depart="41" departLane = "2" departSpeed="11.180000"/>
	<vehicle id="L_48" type="car0" route="route3_4" depart="41" departLane = "1" departSpeed="11.180000"/>
	<vehicle id="L_49" type="car0" route="route1_2" depart="42" departLane = "1" departSpeed="11.180000"/>
	<vehicle id="S_50" type="car0" route="route3_1" depart="42" departLane = "0" departSpeed="11.180000"/>
	<vehicle id="L_51" type="car0" route="route4_1" depart="42" departLane = "1" departSpeed="11.180000"/>
	<vehicle id="R_52" type="car0" route="route1_4" depart="43" departLane = "0" departSpeed="11.180000"/>
	<vehicle id="L_53" type="car0" route="route2_3" depart="43" departLane = "2" departSpeed="11.180000"/>
	<vehicle id="S_54" type="car0" route="route3_1" depart="43" departLane = "1" departSpeed="11.180000"/>
	<vehicle id="R_55" type="car0" route="route4_3" depart="43" departLane = "2" departSpeed="11.180000"/>
	<vehicle id="R_56" type="car0" route="route4_3" depart="45" departLane = "2" departSpeed="11.180000"/>
	<vehicle id="S_57" type="car0" route="route4_2" depart="46" departLane = "2" departSpeed="11.180000"/>
	<vehicle id="R_58" type="car0" route="route2_1" depart="47" departLane = "1" departSpeed="11.180000"/>
	<vehicle id="L_59" type="car0" route="route2_3" depart="48" departLane = "0" departSpeed="11.180000"/>
	<vehicle id="S_60" type="car0" route="route3_1" depart="48" departLane = "1" departSpeed="11.180000"/>
	<vehicle id="R_61" type="car0" route="route1_4" depart="49" departLane = "2" departSpeed="11.180000"/>
	<vehicle id="S_62" type="car0" route="route3_1" depart="50" departLane = "1" departSpeed="11.180000"/>
	<vehicle id="S_63" type="car0" route="route4_2" depart="51" departLane = "1" departSpeed="11.180000"/>
	<vehicle id="L_64" type="car0" route="route1_2" depart="53" departLane = "1" departSpeed="11.180000"/>
	<vehicle id="S_65" type="car0" route="route3_1" depart="53" departLane = "0" departSpeed="11.180000"/>
	<vehicle id="L_66" type="car0" route="route1_2" depart="54" departLane = "1" departSpeed="11.180000"/>
	<vehicle id="L_67" type="car0" route="route2_3" depart="55" departLane = "0" departSpeed="11.180000"/>
	<vehicle id="L_68" type="car0" route="route3_4" depart="55" departLane = "0" departSpeed="11.180000"/>
	<vehicle id="R_69" type="car0" route="route4_3" depart="55" departLane = "0" departSpeed="11.180000"/>
	<vehicle id="L_70" type="car0" route="route1_2" depart="56" departLane = "2" departSpeed="11.180000"/>
	<vehicle id="S_71" type="car0" route="route3_1" depart="56" departLane = "0" departSpeed="11.180000"/>
	<vehicle id="L_72" type="car0" route="route2_3" depart="57" departLane = "0" departSpeed="11.180000"/>
	<vehicle id="S_73" type="car0" route="route4_2" depart="57" departLane = "1" departSpeed="11.180000"/>
	<vehicle id="S_74" type="car0" route="route3_1" depart="58" departLane = "0" departSpeed="11.180000"/>
	<vehicle id="L_75" type="car0" route="route1_2" depart="60" departLane = "0" departSpeed="11.180000"/>
	<vehicle id="R_76" type="car0" route="route2_1" depart="60" departLane = "1" departSpeed="11.180000"/>
	<vehicle id="R_77" type="car0" route="route1_4" depart="61" departLane = "2" departSpeed="11.180000"/>
	<vehicle id="R_78" type="car0" route="route3_2" depart="61" departLane = "2" departSpeed="11.180000"/>
	<vehicle id="S_79" type="car0" route="route3_1" depart="62" departLane = "0" departSpeed="11.180000"/>
	<vehicle id="S_80" type="car0" route="route2_4" depart="63" departLane = "2" departSpeed="11.180000"/>
	<vehicle id="S_81" type="car0" route="route3_1" depart="64" departLane = "1" departSpeed="11.180000"/>
	<vehicle id="S_82" type="car0" route="route4_2" depart="64" departLane = "0" departSpeed="11.180000"/>
	<vehicle id="L_83" type="car0" route="route3_4" depart="65" departLane = "1" departSpeed="11.180000"/>
	<vehicle id="L_84" type="car0" route="route1_2" depart="66" departLane = "1" departSpeed="11.180000"/>
	<vehicle id="L_85" type="car0" route="route4_1" depart="67" departLane = "0" departSpeed="11.180000"/>
	<vehicle id="L_86" type="car0" route="route1_2" depart="68" departLane = "0" departSpeed="11.180000"/>
	<vehicle id="L_87" type="car0" route="route2_3" depart="68" departLane = "0" departSpeed="11.180000"/>
	<vehicle id="S_88" type="car0" route="route4_2" depart="69" departLane = "0" departSpeed="11.180000"/>
	<vehicle id="S_89" type="car0" route="route1_3" depart="70" departLane = "0" departSpeed="11.180000"/>
	<vehicle id="S_90" type="car0" route="route4_2" depart="70" departLane = "2" departSpeed="11.180000"/>
	<vehicle id="L_91" type="car0" route="route2_3" depart="71" departLane = "1" departSpeed="11.180000"/>
	<vehicle id="L_92" type="car0" route="route4_1" depart="71" departLane = "1" departSpeed="11.180000"/>
	<vehicle id="R_93" type="car0" route="route3_2" depart="72" departLane = "1" departSpeed="11.180000"/>
	<vehicle id="S_94" type="car0" route="route2_4" depart="73" departLane = "1" departSpeed="11.180000"/>
	<vehicle id="S_95" type="car0" route="route3_1" depart="74" departLane = "1" departSpeed="11.180000"/>
	<vehicle id="R_96" type="car0" route="route4_3" depart="74" departLane = "0" departSpeed="11.180000"/>
	<vehicle id="S_97" type="car0" route="route2_4" depart="75" departLane = "0" departSpeed="11.180000"/>
	<vehicle id="L_98" type="car0" route="route3_4" depart="76" departLane = "2" departSpeed="11.180000"/>
	<vehicle id="S_99" type="car0" route="route4_2" depart="79" departLane = "1" departSpeed="11.180000"/>
	<vehicle id="S_100" type="car0" route="route3_1" depart="80" departLane = "0" departSpeed="11.180000"/>
	<vehicle id="R_101" type="car0" route="route2_1" depart="81" departLane = "1" departSpeed="11.180000"/>
	<vehicle id="L_102" type="car0" route="route2_3" depart="82" departLane = "1" departSpeed="11.180000"/>
	<vehicle id="S_103" type="car0" route="route2_4" depart="84" departLane = "1" departSpeed="11.180000"/>
	<vehicle id="R_104" type="car0" route="route4_3" depart="84" departLane = "2" departSpeed="11.180000"/>
	<vehicle id="R_105" type="car0" route="route1_4" depart="85" departLane = "0" departSpeed="11.180000"/>
	<vehicle id="S_106" type="car0" route="route4_2" depart="87" departLane = "0" departSpeed="11.180000"/>
	<vehicle id="L_107" type="car0" route="route1_2" depart="90" departLane = "0" departSpeed="11.180000"/>
	<vehicle id="S_108" type="car0" route="route4_2" depart="91" departLane = "0" departSpeed="11.180000"/>
	<vehicle id="S_109" type="car0" route="route4_2" depart="92" departLane = "0" departSpeed="11.180000"/>
	<vehicle id="L_110" type="car0" route="route4_1" depart="93" departLane = "2" departSpeed="11.180000"/>
	<vehicle id="S_111" type="car0" route="route1_3" depart="94" departLane = "0" departSpeed="11.180000"/>
	<vehicle id="R_112" type="car0" route="route3_2" depart="94" departLane = "2" departSpeed="11.180000"/>
	<vehicle id="L_113" type="car0" route="route2_3" depart="97" departLane = "2" departSpeed="11.180000"/>
	<vehicle id="L_114" type="car0" route="route4_1" depart="97" departLane = "0" departSpeed="11.180000"/>
	<vehicle id="S_115" type="car0" route="route2_4" depart="99" departLane = "1" departSpeed="11.180000"/>
	<vehicle id="L_116" type="car0" route="route4_1" depart="99" departLane = "1" departSpeed="11.180000"/>
	<vehicle id="L_117" type="car0" route="route4_1" depart="100" departLane = "2" departSpeed="11.180000"/>
	<vehicle id="R_118" type="car0" route="route2_1" depart="101" departLane = "2" departSpeed="11.180000"/>
	<vehicle id="S_119" type="car0" route="route3_1" depart="101" departLane = "0" departSpeed="11.180000"/>
	<vehicle id="L_120" type="car0" route="route1_2" depart="102" departLane = "1" departSpeed="11.180000"/>
	<vehicle id="R_121" type="car0" route="route3_2" depart="102" departLane = "1" departSpeed="11.180000"/>
	<vehicle id="L_122" type="car0" route="route4_1" depart="102" departLane = "0" departSpeed="11.180000"/>
	<vehicle id="R_123" type="car0" route="route2_1" depart="104" departLane = "1" departSpeed="11.180000"/>
	<vehicle id="S_124" type="car0" route="route4_2" depart="104" departLane = "0" departSpeed="11.180000"/>
	<vehicle id="S_125" type="car0" route="route1_3" depart="106" departLane = "1" departSpeed="11.180000"/>
	<vehicle id="L_126" type="car0" route="route1_2" depart="107" departLane = "2" departSpeed="11.180000"/>
	<vehicle id="L_127" type="car0" route="route2_3" depart="107" departLane = "0" departSpeed="11.180000"/>
	<vehicle id="S_128" type="car0" route="route3_1" depart="107" departLane = "1" departSpeed="11.180000"/>
	<vehicle id="L_129" type="car0" route="route2_3" depart="110" departLane = "0" departSpeed="11.180000"/>
	<vehicle id="L_130" type="car0" route="route4_1" depart="110" departLane = "0" departSpeed="11.180000"/>
	<vehicle id="S_131" type="car0" route="route4_2" depart="111" departLane = "1" departSpeed="11.180000"/>
	<vehicle id="L_132" type="car0" route="route4_1" depart="112" departLane = "1" departSpeed="11.180000"/>
	<vehicle id="S_133" type="car0" route="route3_1" depart="113" departLane = "0" departSpeed="11.180000"/>
	<vehicle id="R_134" type="car0" route="route1_4" depart="115" departLane = "0" departSpeed="11.180000"/>
	<vehicle id="R_135" type="car0" route="route2_1" depart="115" departLane = "0" departSpeed="11.180000"/>
	<vehicle id="S_136" type="car0" route="route1_3" depart="116" departLane = "2" departSpeed="11.180000"/>
	<vehicle id="S_137" type="car0" route="route1_3" depart="117" departLane = "1" departSpeed="11.180000"/>
	<vehicle id="L_138" type="car0" route="route2_3" depart="118" departLane = "0" departSpeed="11.180000"/>
	<vehicle id="R_139" type="car0" route="route3_2" depart="118" departLane = "2" departSpeed="11.180000"/>
	<vehicle id="S_140" type="car0" route="route4_2" depart="119" departLane = "2" departSpeed="11.180000"/>
	<vehicle id="R_141" type="car0" route="route1_4" depart="120" departLane = "1" departSpeed="11.180000"/>
	<vehicle id="S_142" type="car0" route="route2_4" depart="120" departLane = "0" departSpeed="11.180000"/>
	<vehicle id="R_143" type="car0" route="route2_1" depart="121" departLane = "2" departSpeed="11.180000"/>
	<vehicle id="S_144" type="car0" route="route3_1" depart="121" departLane = "1" departSpeed="11.180000"/>
	<vehicle id="R_145" type="car0" route="route1_4" depart="122" departLane = "0" departSpeed="11.180000"/>
	<vehicle id="L_146" type="car0" route="route3_4" depart="122" departLane = "2" departSpeed="11.180000"/>
	<vehicle id="S_147" type="car0" route="route3_1" depart="125" departLane = "2" departSpeed="11.180000"/>
	<vehicle id="R_148" type="car0" route="route4_3" depart="125" departLane = "1" departSpeed="11.180000"/>
	<vehicle id="L_149" type="car0" route="route3_4" depart="126" departLane = "1" departSpeed="11.180000"/>
	<vehicle id="S_150" type="car0" route="route2_4" depart="127" departLane = "2" departSpeed="11.180000"/>
	<vehicle id="L_151" type="car0" route="route3_4" depart="130" departLane = "2" departSpeed="11.180000"/>
	<vehicle id="S_152" type="car0" route="route2_4" depart="131" departLane = "2" departSpeed="11.180000"/>
	<vehicle id="R_153" type="car0" route="route1_4" depart="134" departLane = "1" departSpeed="11.180000"/>
	<vehicle id="L_154" type="car0" route="route2_3" depart="134" departLane = "1" departSpeed="11.180000"/>
	<vehicle id="R_155" type="car0" route="route4_3" depart="134" departLane = "2" departSpeed="11.180000"/>
	<vehicle id="S_156" type="car0" route="route2_4" depart="135" departLane = "0" departSpeed="11.180000"/>
	<vehicle id="S_157" type="car0" route="route3_1" depart="135" departLane = "0" departSpeed="11.180000"/>
	<vehicle id="L_158" type="car0" route="route4_1" depart="135" departLane = "1" departSpeed="11.180000"/>
	<vehicle id="S_159" type="car0" route="route3_1" depart="136" departLane = "1" departSpeed="11.180000"/>
	<vehicle id="L_160" type="car0" route="route2_3" depart="139" departLane = "1" departSpeed="11.180000"/>
	<vehicle id="L_161" type="car0" route="route1_2" depart="140" departLane = "0" departSpeed="11.180000"/>
	<vehicle id="L_162" type="car0" route="route4_1" depart="140" departLane = "0" departSpeed="11.180000"/>
	<vehicle id="S_163" type="car0" route="route1_3" depart="143" departLane = "0" departSpeed="11.180000"/>
	<vehicle id="R_164" type="car0" route="route2_1" depart="143" departLane = "2" departSpeed="11.180000"/>
	<vehicle id="S_165" type="car0" route="route3_1" depart="145" departLane = "1" departSpeed="11.180000"/>
	<vehicle id="S_166" type="car0" route="route1_3" depart="148" departLane = "0" departSpeed="11.180000"/>
	<vehicle id="L_167" type="car0" route="route2_3" depart="148" departLane = "2" departSpeed="11.180000"/>
	<vehicle id="R_168" type="car0" route="route1_4" depart="150" departLane = "1" departSpeed="11.180000"/>
	<vehicle id="S_169" type="car0" route="route1_3" depart="151" departLane = "2" departSpeed="11.180000"/>
	<vehicle id="R_170" type="car0" route="route2_1" depart="151" departLane = "2" departSpeed="11.180000"/>
	<vehicle id="R_171" type="car0" route="route4_3" depart="151" departLane = "2" departSpeed="11.180000"/>
	<vehicle id="S_172" type="car0" route="route1_3" depart="152" departLane = "1" departSpeed="11.180000"/>
	<vehicle id="R_173" type="car0" route="route1_4" depart="153" departLane = "2" departSpeed="11.180000"/>
	<vehicle id="S_174" type="car0" route="route4_2" depart="153" departLane = "0" departSpeed="11.180000"/>
	<vehicle id="L_175" type="car0" route="route2_3" depart="154" departLane = "2" departSpeed="11.180000"/>
	<vehicle id="R_176" type="car0" route="route1_4" depart="155" departLane = "2" departSpeed="11.180000"/>
	<vehicle id="L_177" type="car0" route="route2_3" depart="155" departLane = "2" departSpeed="11.180000"/>
	<vehicle id="S_178" type="car0" route="route1_3" depart="157" departLane = "2" departSpeed="11.180000"/>
	<vehicle id="S_179" type="car0" route="route3_1" depart="157" departLane = "1" departSpeed="11.180000"/>
	<vehicle id="S_180" type="car0" route="route3_1" depart="158" departLane = "0" departSpeed="11.180000"/>
	<vehicle id="R_181" type="car0" route="route2_1" depart="159" departLane = "1" departSpeed="11.180000"/>
	<vehicle id="L_182" type="car0" route="route3_4" depart="159" departLane = "0" departSpeed="11.180000"/>
	<vehicle id="L_183" type="car0" route="route2_3" depart="160" departLane = "2" departSpeed="11.180000"/>
	<vehicle id="R_184" type="car0" route="route3_2" depart="161" departLane = "0" departSpeed="11.180000"/>
	<vehicle id="R_185" type="car0" route="route1_4" depart="162" departLane = "2" departSpeed="11.180000"/>
	<vehicle id="S_186" type="car0" route="route3_1" depart="162" departLane = "1" departSpeed="11.180000"/>
	<vehicle id="S_187" type="car0" route="route4_2" depart="162" departLane = "1" departSpeed="11.180000"/>
	<vehicle id="L_188" type="car0" route="route1_2" depart="163" departLane = "0" departSpeed="11.180000"/>
	<vehicle id="S_189" type="car0" route="route4_2" depart="163" departLane = "2" departSpeed="11.180000"/>
	<vehicle id="L_190" type="car0" route="route1_2" depart="164" departLane = "0" departSpeed="11.180000"/>
	<vehicle id="R_191" type="car0" route="route4_3" depart="164" departLane = "2" departSpeed="11.180000"/>
	<vehicle id="L_192" type="car0" route="route3_4" depart="166" departLane = "1" departSpeed="11.180000"/>
	<vehicle id="L_193" type="car0" route="route3_4" depart="168" departLane = "2" departSpeed="11.180000"/>
	<vehicle id="S_194" type="car0" route="route4_2" depart="168" departLane = "2" departSpeed="11.180000"/>
	<vehicle id="L_195" type="car0" route="route2_3" depart="170" departLane = "2" departSpeed="11.180000"/>
	<vehicle id="S_196" type="car0" route="route3_1" depart="170" departLane = "2" departSpeed="11.180000"/>
	<vehicle id="R_197" type="car0" route="route1_4" depart="171" departLane = "2" departSpeed="11.180000"/>
	<vehicle id="S_198" type="car0" route="route3_1" depart="171" departLane = "0" departSpeed="11.180000"/>
	<vehicle id="L_199" type="car0" route="route4_1" depart="171" departLane = "0" departSpeed="11.180000"/>
	<vehicle id="R_200" type="car0" route="route1_4" depart="172" departLane = "2" departSpeed="11.180000"/>
	<vehicle id="R_201" type="car0" route="route2_1" depart="172" departLane = "1" departSpeed="11.180000"/>
	<vehicle id="S_202" type="car0" route="route2_4" depart="173" departLane = "0" departSpeed="11.180000"/>
	<vehicle id="R_203" type="car0" route="route3_2" depart="173" departLane = "2" departSpeed="11.180000"/>
	<vehicle id="S_204" type="car0" route="route3_1" depart="174" departLane = "2" departSpeed="11.180000"/>
	<vehicle id="L_205" type="car0" route="route3_4" depart="175" departLane = "0" departSpeed="11.180000"/>
	<vehicle id="R_206" type="car0" route="route1_4" depart="177" departLane = "0" departSpeed="11.180000"/>
	<vehicle id="R_207" type="car0" route="route3_2" depart="177" departLane = "0" departSpeed="11.180000"/>
	<vehicle id="S_208" type="car0" route="route4_2" depart="177" departLane = "2" departSpeed="11.180000"/>
	<vehicle id="S_209" type="car0" route="route2_4" depart="178" departLane = "2" departSpeed="11.180000"/>
	<vehicle id="L_210" type="car0" route="route3_4" depart="179" departLane = "0" departSpeed="11.180000"/>
	<vehicle id="R_211" type="car0" route="route3_2" depart="180" departLane = "1" departSpeed="11.180000"/>
	<vehicle id="R_212" type="car0" route="route2_1" depart="183" departLane = "2" departSpeed="11.180000"/>
	<vehicle id="L_213" type="car0" route="route3_4" depart="183" departLane = "0" departSpeed="11.180000"/>
	<vehicle id="R_214" type="car0" route="route4_3" depart="184" departLane = "2" departSpeed="11.180000"/>
	<vehicle id="L_215" type="car0" route="route1_2" depart="185" departLane = "1" departSpeed="11.180000"/>
	<vehicle id="L_216" type="car0" route="route1_2" depart="186" departLane = "1" departSpeed="11.180000"/>
	<vehicle id="L_217" type="car0" route="route3_4" depart="186" departLane = "1" departSpeed="11.180000"/>
	<vehicle id="L_218" type="car0" route="route4_1" depart="186" departLane = "0" departSpeed="11.180000"/>
	<vehicle id="L_219" type="car0" route="route1_2" depart="188" departLane = "2" departSpeed="11.180000"/>
	<vehicle id="L_220" type="car0" route="route4_1" depart="188" departLane = "0" departSpeed="11.180000"/>
	<vehicle id="R_221" type="car0" route="route1_4" depart="189" departLane = "1" departSpeed="11.180000"/>
	<vehicle id="S_222" type="car0" route="route4_2" depart="192" departLane = "0" departSpeed="11.180000"/>
	<vehicle id="L_223" type="car0" route="route1_2" depart="195" departLane = "2" departSpeed="11.180000"/>
	<vehicle id="R_224" type="car0" route="route4_3" depart="195" departLane = "2" departSpeed="11.180000"/>
	<vehicle id="S_225" type="car0" route="route2_4" depart="196" departLane = "0" departSpeed="11.180000"/>
	<vehicle id="L_226" type="car0" route="route3_4" depart="196" departLane = "2" departSpeed="11.180000"/>
	<vehicle id="R_227" type="car0" route="route4_3" depart="196" departLane = "0" departSpeed="11.180000"/>
	<vehicle id="L_228" type="car0" route="route3_4" depart="197" departLane = "0" departSpeed="11.180000"/>
	<vehicle id="R_229" type="car0" route="route1_4" depart="199" departLane = "1" departSpeed="11.180000"/>
	<vehicle id="S_230" type="car0" route="route2_4" depart="199" departLane = "0" departSpeed="11.180000"/>
	<vehicle id="R_231" type="car0" route="route2_1" depart="200" departLane = "0" departSpeed="11.180000"/>
	<vehicle id="R_232" type="car0" route="route1_4" depart="201" departLane = "2" departSpeed="11.180000"/>
	<vehicle id="S_233" type="car0" route="route3_1" depart="201" departLane = "1" departSpeed="11.180000"/>
	<vehicle id="S_234" type="car0" route="route3_1" depart="202" departLane = "2" departSpeed="11.180000"/>
	<vehicle id="L_235" type="car0" route="route4_1" depart="202" departLane = "1" departSpeed="11.180000"/>
	<vehicle id="S_236" type="car0" route="route1_3" depart="204" departLane = "0" departSpeed="11.180000"/>
	<vehicle id="S_237" type="car0" route="route4_2" depart="204" departLane = "1" departSpeed="11.180000"/>
	<vehicle id="S_238" type="car0" route="route1_3" depart="206" departLane = "2" departSpeed="11.180000"/>
	<vehicle id="R_239" type="car0" route="route1_4" depart="207" departLane = "1" departSpeed="11.180000"/>
	<vehicle id="L_240" type="car0" route="route3_4" depart="207" departLane = "0" departSpeed="11.180000"/>
	<vehicle id="S_241" type="car0" route="route2_4" depart="208" departLane = "2" departSpeed="11.180000"/>
	<vehicle id="R_242" type="car0" route="route4_3" depart="208" departLane = "0" departSpeed="11.180000"/>
	<vehicle id="S_243" type="car0" route="route1_3" depart="209" departLane = "0" departSpeed="11.180000"/>
	<vehicle id="L_244" type="car0" route="route1_2" depart="210" departLane = "2" departSpeed="11.180000"/>
	<vehicle id="R_245" type="car0" route="route2_1" depart="210" departLane = "0" departSpeed="11.180000"/>
	<vehicle id="S_246" type="car0" route="route4_2" depart="210" departLane = "0" departSpeed="11.180000"/>
	<vehicle id="L_247" type="car0" route="route3_4" depart="211" departLane = "2" departSpeed="11.180000"/>
	<vehicle id="R_248" type="car0" route="route3_2" depart="212" departLane = "0" departSpeed="11.180000"/>
	<vehicle id="L_249" type="car0" route="route2_3" depart="213" departLane = "2" departSpeed="11.180000"/>
	<vehicle id="S_250" type="car0" route="route3_1" depart="213" departLane = "2" departSpeed="11.180000"/>
	<vehicle id="S_251" type="car0" route="route4_2" depart="213" departLane = "1" departSpeed="11.180000"/>
	<vehicle id="R_252" type="car0" route="route1_4" depart="215" departLane = "2" departSpeed="11.180000"/>
	<vehicle id="S_253" type="car0" route="route2_4" depart="215" departLane = "2" departSpeed="11.180000"/>
	<vehicle id="R_254" type="car0" route="route3_2" depart="215" departLane = "1" departSpeed="11.180000"/>
	<vehicle id="L_255" type="car0" route="route3_4" depart="217" departLane = "2" departSpeed="11.180000"/>
	<vehicle id="L_256" type="car0" route="route1_2" depart="218" departLane = "2" departSpeed="11.180000"/>
	<vehicle id="S_257" type="car0" route="route1_3" depart="219" departLane = "0" departSpeed="11.180000"/>
	<vehicle id="R_258" type="car0" route="route2_1" depart="219" departLane = "2" departSpeed="11.180000"/>
	<vehicle id="R_259" type="car0" route="route3_2" depart="219" departLane = "0" departSpeed="11.180000"/>
	<vehicle id="L_260" type="car0" route="route1_2" depart="221" departLane = "0" departSpeed="11.180000"/>
	<vehicle id="L_261" type="car0" route="route1_2" depart="223" departLane = "2" departSpeed="11.180000"/>
	<vehicle id="S_262" type="car0" route="route3_1" depart="223" departLane = "2" departSpeed="11.180000"/>
	<vehicle id="R_263" type="car0" route="route4_3" depart="223" departLane = "0" departSpeed="11.180000"/>
	<vehicle id="R_264" type="car0" route="route1_4" depart="224" departLane = "2" departSpeed="11.180000"/>
	<vehicle id="L_265" type="car0" route="route3_4" depart="224" departLane = "2" departSpeed="11.180000"/>
	<vehicle id="L_266" type="car0" route="route4_1" depart="224" departLane = "1" departSpeed="11.180000"/>
	<vehicle id="R_267" type="car0" route="route1_4" depart="225" departLane = "0" departSpeed="11.180000"/>
	<vehicle id="R_268" type="car0" route="route2_1" depart="225" departLane = "2" departSpeed="11.180000"/>
	<vehicle id="R_269" type="car0" route="route1_4" depart="226" departLane = "1" departSpeed="11.180000"/>
	<vehicle id="R_270" type="car0" route="route2_1" depart="226" departLane = "2" departSpeed="11.180000"/>
	<vehicle id="S_271" type="car0" route="route3_1" depart="227" departLane = "0" departSpeed="11.180000"/>
	<vehicle id="R_272" type="car0" route="route4_3" depart="229" departLane = "1" departSpeed="11.180000"/>
	<vehicle id="L_273" type="car0" route="route1_2" depart="230" departLane = "1" departSpeed="11.180000"/>
	<vehicle id="L_274" type="car0" route="route4_1" depart="231" departLane = "1" departSpeed="11.180000"/>
	<vehicle id="S_275" type="car0" route="route1_3" depart="232" departLane = "2" departSpeed="11.180000"/>
	<vehicle id="R_276" type="car0" route="route4_3" depart="232" departLane = "0" departSpeed="11.180000"/>
	<vehicle id="L_277" type="car0" route="route4_1" depart="233" departLane = "2" departSpeed="11.180000"/>
	<vehicle id="S_278" type="car0" route="route1_3" depart="234" departLane = "0" departSpeed="11.180000"/>